[General]
network = OGDCNetwork
sim-time-limit = 900s        # 10 rounds (roundTime=1000s each)

# ── Match the paper: up to 1000 nodes in 50×50 m² ──────────────────────────
**.numSensors = 100            # change to 500 or 1000 to match paper Fig.3

# ── Paper parameters ────────────────────────────────────────────────────────
**.sensingRange = 10m          # rs = 10m
**.radioRange   = 20m          # rc = 2*rs  (connectivity implied by coverage)
**.areaSize     = 50m
**.initialEnergy = 50        
**.roundTime    = 1000s
**.Td           = 0.01s        # 10 ms  (paper Table value)
**.Ts           = 1s           # 1 s    (paper Table value)
**.Te           = 0.2s         # Ts/5   (paper Table value)

# ── Reproducible random placement ───────────────────────────────────────────
seed-set = 0

# ── Record statistics ────────────────────────────────────────────────────────
**.sensor[0].coverage.result-recording-modes   = all
**.sensor[0].activeNodes.result-recording-modes = all

# ─────── Configurations matching the paper's Fig.3 scenarios ────────────────
[Config N100]
description = "100 sensors — quick test"
**.numSensors = 100

[Config N300]
description = "300 sensors"
**.numSensors = 300

[Config N500]
description = "500 sensors"
**.numSensors = 500

[Config N1000]
description = "1000 sensors — paper environment"
**.numSensors = 1000